gridlabd-4/PG&E/TMP0009.glm
// PG&E TMP0009 Taxonomy Feeder Model

module powerflow
{
	solver_method NR;
	default_maximum_voltage_error 1e-4;
}

//*********************************************
// Conductor Objects
//*********************************************
// OHCond_1/0_AAC_I
object overhead_line_conductor {
	name OHCond_1/0_AAC_I;
	resistance 0.8820750323;
	geometric_mean_radius 0.0110971584;
	diameter 0.367999264;
}

// OHCond_2_CU_I
object overhead_line_conductor {
	name OHCond_2_CU_I;
	resistance 0.8920559109;
	geometric_mean_radius 0.0882773952;
	diameter 0.291999416;
}

// OHCond_267_AAC_I
object overhead_line_conductor {
	name OHCond_267_AAC_I;
	resistance 0.3498907874;
	geometric_mean_radius 0.0176954688;
	diameter 0.585998828;
}

// OHCond_2_ACSR_I
object overhead_line_conductor {
	name OHCond_2_ACSR_I;
	resistance 1.3505631832;
	geometric_mean_radius 0.060464504;
	diameter 0.32499935;
}

// OHCond_715_AAC_I
object overhead_line_conductor {
	name OHCond_715_AAC_I;
	resistance 0.1324968876;
	geometric_mean_radius 0.0311920128;
	diameter 0.972998054;
}

// OHCond_1/0_ACSR_I
object overhead_line_conductor {
	name OHCond_1/0_ACSR_I;
	resistance 0.8584762571;
	geometric_mean_radius 0.053506312;
	diameter 0.397999204;
}

// OHCond_2/0_AAC_I
object overhead_line_conductor {
	name OHCond_2/0_AAC_I;
	resistance 0.699981128;
	geometric_mean_radius 0.012506804;
	diameter 0.413999172;
}

// OHCond_4/0_ACSR_I
object overhead_line_conductor {
	name OHCond_4/0_ACSR_I;
	resistance 0.4287883292;
	geometric_mean_radius 0.0976549808;
	diameter 0.562998874;
}

// OHCond_4_ACSR_I
object overhead_line_conductor {
	name OHCond_4_ACSR_I;
	resistance 2.1715395317;
	geometric_mean_radius 0.0524265688;
	diameter 0.2499995;
}

// OHCond_6_CU_I
object overhead_line_conductor {
	name OHCond_6_CU_I;
	resistance 2.2113584416;
	geometric_mean_radius 0.00525866;
	diameter 0.161999676;
}

// OHCond_DEFAULT
object overhead_line_conductor {
	name OHCond_DEFAULT;
	resistance 0.27792611;
	geometric_mean_radius 0.01667552;
	diameter 0.52799107;
}

// OHCond_4_ACSR_C
object overhead_line_conductor {
	name OHCond_4_ACSR_C;
	resistance 2.1715395317;
	geometric_mean_radius 0.0524265688;
	diameter 0.2499995;
}

// OHCond_1/0_CU_I
object overhead_line_conductor {
	name OHCond_1/0_CU_I;
	resistance 0.5615250025;
	geometric_mean_radius 0.0111371416;
	diameter 0.367999264;
}

// OHCond_4/0_AAC_I
object overhead_line_conductor {
	name OHCond_4/0_AAC_I;
	resistance 0.4406874934;
	geometric_mean_radius 0.015765976;
	diameter 0.521998956;
}

// OHCond_4_CU_I
object overhead_line_conductor {
	name OHCond_4_CU_I;
	resistance 1.4181103321;
	geometric_mean_radius 0.006998208;
	diameter 0.231999536;
}

// OHCond_397_AAC_I
object overhead_line_conductor {
	name OHCond_397_AAC_I;
	resistance 0.2354936969;
	geometric_mean_radius 0.0227941632;
	diameter 0.722998554;
}

// OHCond_6_CU_C
object overhead_line_conductor {
	name OHCond_6_CU_C;
	resistance 2.2113584416;
	geometric_mean_radius 0.00525866;
	diameter 0.161999676;
}

// OHCond_1113_AAC_I
object overhead_line_conductor {
	name OHCond_1113_AAC_I;
	resistance 0.0871983112;
	geometric_mean_radius 0.0390899904;
	diameter 1.215997568;
}

// UGCable_700_AL_XLP-CONC-PVC_22KV_3P
object underground_line_conductor {
	name UGCable_700_AL_XLP-CONC-PVC_22KV_3P;
	outer_diameter 0.6692917;
	conductor_gmr 0.01667552;
	conductor_diameter 0.52799107;
	conductor_resistance 0.27792611;
	neutral_gmr 0.01667552;
	neutral_resistance 0.27792611;
	neutral_diameter 0.52799107;
	neutral_strands 2;
}

// UGCable_1/0_AL_XLP-CON-ENCP-PE_22KV_3P
object underground_line_conductor {
	name UGCable_1/0_AL_XLP-CON-ENCP-PE_22KV_3P;
	outer_diameter 0.6692917;
	conductor_gmr 0.01667552;
	conductor_diameter 0.52799107;
	conductor_resistance 0.27792611;
	neutral_gmr 0.01667552;
	neutral_resistance 0.27792611;
	neutral_diameter 0.52799107;
	neutral_strands 2;
}

// UGCable_1/0_AL_XLP-CONC-CIC_22KV_1P
object underground_line_conductor {
	name UGCable_1/0_AL_XLP-CONC-CIC_22KV_1P;
	outer_diameter 0.669290518897;
	conductor_gmr 0.01667552;
	conductor_diameter 0.52799107;
	conductor_resistance 0.27792611;
	neutral_gmr 0.01667552;
	neutral_resistance 0.27792611;
	neutral_diameter 0.52799107;
	neutral_strands 2;
}

// UGCable_2_AL_XLP-CONC-PVC_22KV_3P
object underground_line_conductor {
	name UGCable_2_AL_XLP-CONC-PVC_22KV_3P;
	outer_diameter 0.6692917;
	conductor_gmr 0.01667552;
	conductor_diameter 0.52799107;
	conductor_resistance 0.27792611;
	neutral_gmr 0.01667552;
	neutral_resistance 0.27792611;
	neutral_diameter 0.52799107;
	neutral_strands 2;
}

// UGCable_1/0_AL_EPR-CONC-ENCAP-PE_1P
object underground_line_conductor {
	name UGCable_1/0_AL_EPR-CONC-ENCAP-PE_1P;
	outer_diameter 0.669290518897;
	conductor_gmr 0.01667552;
	conductor_diameter 0.52799107;
	conductor_resistance 0.27792611;
	neutral_gmr 0.01667552;
	neutral_resistance 0.27792611;
	neutral_diameter 0.52799107;
	neutral_strands 2;
}

// UGCable_1100_AL_EPR-CONC-ENCAP-PE_3P
object underground_line_conductor {
	name UGCable_1100_AL_EPR-CONC-ENCAP-PE_3P;
	outer_diameter 0.6692917;
	conductor_gmr 0.01667552;
	conductor_diameter 0.52799107;
	conductor_resistance 0.27792611;
	neutral_gmr 0.01667552;
	neutral_resistance 0.27792611;
	neutral_diameter 0.52799107;
	neutral_strands 2;
}

// UGCable_1/0_AL_XLP-CONC-PVC_22KV_3P
object underground_line_conductor {
	name UGCable_1/0_AL_XLP-CONC-PVC_22KV_3P;
	outer_diameter 0.6692917;
	conductor_gmr 0.01667552;
	conductor_diameter 0.52799107;
	conductor_resistance 0.27792611;
	neutral_gmr 0.01667552;
	neutral_resistance 0.27792611;
	neutral_diameter 0.52799107;
	neutral_strands 2;
}

// UGCable_1/0_AL_XLP-CONC-PVC_22KV_1P
object underground_line_conductor {
	name UGCable_1/0_AL_XLP-CONC-PVC_22KV_1P;
	outer_diameter 0.669290518897;
	conductor_gmr 0.01667552;
	conductor_diameter 0.52799107;
	conductor_resistance 0.27792611;
	neutral_gmr 0.01667552;
	neutral_resistance 0.27792611;
	neutral_diameter 0.52799107;
	neutral_strands 2;
}

// UGCable_2_AL_PEC_22KV_1P
object underground_line_conductor {
	name UGCable_2_AL_PEC_22KV_1P;
	outer_diameter 0.669290518897;
	conductor_gmr 0.01667552;
	conductor_diameter 0.52799107;
	conductor_resistance 0.27792611;
	neutral_gmr 0.01667552;
	neutral_resistance 0.27792611;
	neutral_diameter 0.52799107;
	neutral_strands 2;
}

// UGCable_2_AL_XLP-PVC_22KV_1P
object underground_line_conductor {
	name UGCable_2_AL_XLP-PVC_22KV_1P;
	outer_diameter 0.669290518897;
	conductor_gmr 0.01667552;
	conductor_diameter 0.52799107;
	conductor_resistance 0.27792611;
	neutral_gmr 0.01667552;
	neutral_resistance 0.27792611;
	neutral_diameter 0.52799107;
	neutral_strands 2;
}

// UGCable_1/0_AL_XLP-CON-ENCP-PE_22KV_2P
object underground_line_conductor {
	name UGCable_1/0_AL_XLP-CON-ENCP-PE_22KV_2P;
	outer_diameter 0.669290518897;
	conductor_gmr 0.01667552;
	conductor_diameter 0.52799107;
	conductor_resistance 0.27792611;
	neutral_gmr 0.01667552;
	neutral_resistance 0.27792611;
	neutral_diameter 0.52799107;
	neutral_strands 2;
}

// UGCable_2_AL_XLP-CONC-PVC_22KV_1P
object underground_line_conductor {
	name UGCable_2_AL_XLP-CONC-PVC_22KV_1P;
	outer_diameter 0.669290518897;
	conductor_gmr 0.01667552;
	conductor_diameter 0.52799107;
	conductor_resistance 0.27792611;
	neutral_gmr 0.01667552;
	neutral_resistance 0.27792611;
	neutral_diameter 0.52799107;
	neutral_strands 2;
}

// UGCable_2_AL_PEC_22KV_3P
object underground_line_conductor {
	name UGCable_2_AL_PEC_22KV_3P;
	outer_diameter 0.6692917;
	conductor_gmr 0.01667552;
	conductor_diameter 0.52799107;
	conductor_resistance 0.27792611;
	neutral_gmr 0.01667552;
	neutral_resistance 0.27792611;
	neutral_diameter 0.52799107;
	neutral_strands 2;
}

// UGCable_2_AL_XLP-CONC-CIC_22KV_2P
object underground_line_conductor {
	name UGCable_2_AL_XLP-CONC-CIC_22KV_2P;
	outer_diameter 0.669290518897;
	conductor_gmr 0.01667552;
	conductor_diameter 0.52799107;
	conductor_resistance 0.27792611;
	neutral_gmr 0.01667552;
	neutral_resistance 0.27792611;
	neutral_diameter 0.52799107;
	neutral_strands 2;
}

// UGCable_1/0_AL_EPR-CONC-PVC_22KV_2P
object underground_line_conductor {
	name UGCable_1/0_AL_EPR-CONC-PVC_22KV_2P;
	outer_diameter 0.669290518897;
	conductor_gmr 0.01667552;
	conductor_diameter 0.52799107;
	conductor_resistance 0.27792611;
	neutral_gmr 0.01667552;
	neutral_resistance 0.27792611;
	neutral_diameter 0.52799107;
	neutral_strands 2;
}

// UGCable_1/0_AL_EPR-CONC-ENCAP-PE_3P
object underground_line_conductor {
	name UGCable_1/0_AL_EPR-CONC-ENCAP-PE_3P;
	outer_diameter 0.6692917;
	conductor_gmr 0.01667552;
	conductor_diameter 0.52799107;
	conductor_resistance 0.27792611;
	neutral_gmr 0.01667552;
	neutral_resistance 0.27792611;
	neutral_diameter 0.52799107;
	neutral_strands 2;
}

// UGCable_1/0_AL_XLP-CON-ENCP-PE_22KV_1P&N
object underground_line_conductor {
	name UGCable_1/0_AL_XLP-CON-ENCP-PE_22KV_1P&N;
	outer_diameter 0.669290518897;
	conductor_gmr 0.01667552;
	conductor_diameter 0.52799107;
	conductor_resistance 0.27792611;
	neutral_gmr 0.01667552;
	neutral_resistance 0.27792611;
	neutral_diameter 0.52799107;
	neutral_strands 2;
}

// UGCable_2_AL_XLP-CONC_22KV_3P
object underground_line_conductor {
	name UGCable_2_AL_XLP-CONC_22KV_3P;
	outer_diameter 0.6692917;
	conductor_gmr 0.01667552;
	conductor_diameter 0.52799107;
	conductor_resistance 0.27792611;
	neutral_gmr 0.01667552;
	neutral_resistance 0.27792611;
	neutral_diameter 0.52799107;
	neutral_strands 2;
}

// UGCable_2_AL_XLP-PVC_15KV_3P
object underground_line_conductor {
	name UGCable_2_AL_XLP-PVC_15KV_3P;
	outer_diameter 0.6692917;
	conductor_gmr 0.01667552;
	conductor_diameter 0.52799107;
	conductor_resistance 0.27792611;
	neutral_gmr 0.01667552;
	neutral_resistance 0.27792611;
	neutral_diameter 0.52799107;
	neutral_strands 2;
}

// UGCable_1000_AL_XLP-CONC-PVC_22KV_3P
object underground_line_conductor {
	name UGCable_1000_AL_XLP-CONC-PVC_22KV_3P;
	outer_diameter 0.6692917;
	conductor_gmr 0.01667552;
	conductor_diameter 0.52799107;
	conductor_resistance 0.27792611;
	neutral_gmr 0.01667552;
	neutral_resistance 0.27792611;
	neutral_diameter 0.52799107;
	neutral_strands 2;
}

// UGCable_4/0_AL_XLP-CONC-PVC_22KV_3P
object underground_line_conductor {
	name UGCable_4/0_AL_XLP-CONC-PVC_22KV_3P;
	outer_diameter 0.6692917;
	conductor_gmr 0.01667552;
	conductor_diameter 0.52799107;
	conductor_resistance 0.27792611;
	neutral_gmr 0.01667552;
	neutral_resistance 0.27792611;
	neutral_diameter 0.52799107;
	neutral_strands 2;
}

// UGCable_2_AL_XLP-CONC-ENCAP-PE_22KV_1P
object underground_line_conductor {
	name UGCable_2_AL_XLP-CONC-ENCAP-PE_22KV_1P;
	outer_diameter 0.669290518897;
	conductor_gmr 0.01667552;
	conductor_diameter 0.52799107;
	conductor_resistance 0.27792611;
	neutral_gmr 0.01667552;
	neutral_resistance 0.27792611;
	neutral_diameter 0.52799107;
	neutral_strands 2;
}

// UGCable_DEFAULT
object underground_line_conductor {
	name UGCable_DEFAULT;
	outer_diameter 0.6692917;
	conductor_gmr 0.01667552;
	conductor_diameter 0.52799107;
	conductor_resistance 0.27792611;
	neutral_gmr 0.01667552;
	neutral_resistance 0.27792611;
	neutral_diameter 0.52799107;
	neutral_strands 2;
}

// UGCable_350_AL_XLP-CONC-PVC_22KV_3P
object underground_line_conductor {
	name UGCable_350_AL_XLP-CONC-PVC_22KV_3P;
	outer_diameter 0.6692917;
	conductor_gmr 0.01667552;
	conductor_diameter 0.52799107;
	conductor_resistance 0.27792611;
	neutral_gmr 0.01667552;
	neutral_resistance 0.27792611;
	neutral_diameter 0.52799107;
	neutral_strands 2;
}

// UGCable_2_AL_XLP-CONC-ENCAP-PE_22KV_2P
object underground_line_conductor {
	name UGCable_2_AL_XLP-CONC-ENCAP-PE_22KV_2P;
	outer_diameter 0.669290518897;
	conductor_gmr 0.01667552;
	conductor_diameter 0.52799107;
	conductor_resistance 0.27792611;
	neutral_gmr 0.01667552;
	neutral_resistance 0.27792611;
	neutral_diameter 0.52799107;
	neutral_strands 2;
}

// UGCable_2_AL_XLP-CONC-ENCAP-PE_22KV_3P
object underground_line_conductor {
	name UGCable_2_AL_XLP-CONC-ENCAP-PE_22KV_3P;
	outer_diameter 0.6692917;
	conductor_gmr 0.01667552;
	conductor_diameter 0.52799107;
	conductor_resistance 0.27792611;
	neutral_gmr 0.01667552;
	neutral_resistance 0.27792611;
	neutral_diameter 0.52799107;
	neutral_strands 2;
}

// UGCable_2_AL_XLP-CONC-CIC_22KV_1P
object underground_line_conductor {
	name UGCable_2_AL_XLP-CONC-CIC_22KV_1P;
	outer_diameter 0.669290518897;
	conductor_gmr 0.01667552;
	conductor_diameter 0.52799107;
	conductor_resistance 0.27792611;
	neutral_gmr 0.01667552;
	neutral_resistance 0.27792611;
	neutral_diameter 0.52799107;
	neutral_strands 2;
}

// UGCable_1/0_AL_XLP-CONC-PVC_22KV_2P
object underground_line_conductor {
	name UGCable_1/0_AL_XLP-CONC-PVC_22KV_2P;
	outer_diameter 0.669290518897;
	conductor_gmr 0.01667552;
	conductor_diameter 0.52799107;
	conductor_resistance 0.27792611;
	neutral_gmr 0.01667552;
	neutral_resistance 0.27792611;
	neutral_diameter 0.52799107;
	neutral_strands 2;
}

// UGCable_1/0_AL_XLP-CONC-PVC_22KV_3P&N
object underground_line_conductor {
	name UGCable_1/0_AL_XLP-CONC-PVC_22KV_3P&N;
	outer_diameter 0.6692917;
	conductor_gmr 0.01667552;
	conductor_diameter 0.52799107;
	conductor_resistance 0.27792611;
	neutral_gmr 0.01667552;
	neutral_resistance 0.27792611;
	neutral_diameter 0.52799107;
	neutral_strands 2;
}

// UGCable_2_AL_PEC_22KV_2P
object underground_line_conductor {
	name UGCable_2_AL_PEC_22KV_2P;
	outer_diameter 0.669290518897;
	conductor_gmr 0.01667552;
	conductor_diameter 0.52799107;
	conductor_resistance 0.27792611;
	neutral_gmr 0.01667552;
	neutral_resistance 0.27792611;
	neutral_diameter 0.52799107;
	neutral_strands 2;
}

// UGCable_1/0_AL_EPR-CONC-PVC_22KV_3P
object underground_line_conductor {
	name UGCable_1/0_AL_EPR-CONC-PVC_22KV_3P;
	outer_diameter 0.6692917;
	conductor_gmr 0.01667552;
	conductor_diameter 0.52799107;
	conductor_resistance 0.27792611;
	neutral_gmr 0.01667552;
	neutral_resistance 0.27792611;
	neutral_diameter 0.52799107;
	neutral_strands 2;
}

// UGCable_1/0_AL_EPR-CONC-ENCAP-PE_2P
object underground_line_conductor {
	name UGCable_1/0_AL_EPR-CONC-ENCAP-PE_2P;
	outer_diameter 0.669290518897;
	conductor_gmr 0.01667552;
	conductor_diameter 0.52799107;
	conductor_resistance 0.27792611;
	neutral_gmr 0.01667552;
	neutral_resistance 0.27792611;
	neutral_diameter 0.52799107;
	neutral_strands 2;
}

// UGCable_1/0_AL_XLP-CON-ENCP-PE_22KV_1P
object underground_line_conductor {
	name UGCable_1/0_AL_XLP-CON-ENCP-PE_22KV_1P;
	outer_diameter 0.669290518897;
	conductor_gmr 0.01667552;
	conductor_diameter 0.52799107;
	conductor_resistance 0.27792611;
	neutral_gmr 0.01667552;
	neutral_resistance 0.27792611;
	neutral_diameter 0.52799107;
	neutral_strands 2;
}

// UGCable_2_AL_XLP-CONC-CIC_22KV_3P
object underground_line_conductor {
	name UGCable_2_AL_XLP-CONC-CIC_22KV_3P;
	outer_diameter 0.6692917;
	conductor_gmr 0.01667552;
	conductor_diameter 0.52799107;
	conductor_resistance 0.27792611;
	neutral_gmr 0.01667552;
	neutral_resistance 0.27792611;
	neutral_diameter 0.52799107;
	neutral_strands 2;
}

// UGCable_2_AL_XLP-CONC-PVC_22KV_2P
object underground_line_conductor {
	name UGCable_2_AL_XLP-CONC-PVC_22KV_2P;
	outer_diameter 0.669290518897;
	conductor_gmr 0.01667552;
	conductor_diameter 0.52799107;
	conductor_resistance 0.27792611;
	neutral_gmr 0.01667552;
	neutral_resistance 0.27792611;
	neutral_diameter 0.52799107;
	neutral_strands 2;
}

// UGCable_2_AL_XLP-PVC_15KV_2P
object underground_line_conductor {
	name UGCable_2_AL_XLP-PVC_15KV_2P;
	outer_diameter 0.669290518897;
	conductor_gmr 0.01667552;
	conductor_diameter 0.52799107;
	conductor_resistance 0.27792611;
	neutral_gmr 0.01667552;
	neutral_resistance 0.27792611;
	neutral_diameter 0.52799107;
	neutral_strands 2;
}

// UGCable_600_AL_EPR-CONC-ENCAP-PE_3P
object underground_line_conductor {
	name UGCable_600_AL_EPR-CONC-ENCAP-PE_3P;
	outer_diameter 0.6692917;
	conductor_gmr 0.01667552;
	conductor_diameter 0.52799107;
	conductor_resistance 0.27792611;
	neutral_gmr 0.01667552;
	neutral_resistance 0.27792611;
	neutral_diameter 0.52799107;
	neutral_strands 2;
}

// UGCable_1/0_AL_EPR-CONC-ENCAP-PE_1P&N
object underground_line_conductor {
	name UGCable_1/0_AL_EPR-CONC-ENCAP-PE_1P&N;
	outer_diameter 0.669290518897;
	conductor_gmr 0.01667552;
	conductor_diameter 0.52799107;
	conductor_resistance 0.27792611;
	neutral_gmr 0.01667552;
	neutral_resistance 0.27792611;
	neutral_diameter 0.52799107;
	neutral_strands 2;
}

//*********************************************
// Line spacing objects
//*********************************************
// OHSpacing_TRIANGULAR_3P_50
object line_spacing {
	name OHSpacing_TRIANGULAR_3P_50;
	distance_AB 4.166616;
	distance_BC 4.166616;
	distance_AC 4.166616;
	distance_AN 5.66659776;
	distance_BN 5.66659776;
	distance_CN 5.66659776;
}

// OHSpacing_HORIZONTAL_2P_88
object line_spacing {
	name OHSpacing_HORIZONTAL_2P_88;
	distance_AB 7.3332408792;
	distance_BC 7.3332408792;
	distance_AC 7.3332408792;
	distance_AN 9.9998784;
	distance_BN 9.9998784;
	distance_CN 9.9998784;
}

// OHSpacing_TRIANGULAR_3P_52
object line_spacing {
	name OHSpacing_TRIANGULAR_3P_52;
	distance_AB 4.3332773592;
	distance_BC 4.3332773592;
	distance_AC 4.3332773592;
	distance_AN 6.6665888808;
	distance_BN 6.6665888808;
	distance_CN 6.6665888808;
}

// UGSpacing_1/0_AL_EPR-CONC-ENCAP-PE_2P
object line_spacing {
	name UGSpacing_1/0_AL_EPR-CONC-ENCAP-PE_2P;
	distance_AB 0.147636;
	distance_BC 0.0;
	distance_AC 0.0;
}

// UGSpacing_2_AL_XLP-CONC-CIC_22KV_3P
object line_spacing {
	name UGSpacing_2_AL_XLP-CONC-CIC_22KV_3P;
	distance_AB 0.147636;
	distance_BC 0.147636;
	distance_AC 0.295272;
}

// OHSpacing_TRIANGULAR_1P_39
object line_spacing {
	name OHSpacing_TRIANGULAR_1P_39;
	distance_AB 3.24996048;
	distance_BC 3.24996048;
	distance_AC 3.24996048;
	distance_AN 4.4199462528;
	distance_BN 4.4199462528;
	distance_CN 4.4199462528;
}

// OHSpacing_TRIANGULAR_1P_50
object line_spacing {
	name OHSpacing_TRIANGULAR_1P_50;
	distance_AB 4.166616;
	distance_BC 4.166616;
	distance_AC 4.166616;
	distance_AN 5.66659776;
	distance_BN 5.66659776;
	distance_CN 5.66659776;
}

// UGSpacing_1/0_AL_EPR-CONC-PVC_22KV_3P
object line_spacing {
	name UGSpacing_1/0_AL_EPR-CONC-PVC_22KV_3P;
	distance_AB 0.147636;
	distance_BC 0.147636;
	distance_AC 0.295272;
}

// UGSpacing_1/0_AL_XLP-CONC-PVC_22KV_2P
object line_spacing {
	name UGSpacing_1/0_AL_XLP-CONC-PVC_22KV_2P;
	distance_AB 0.147636;
	distance_BC 0.0;
	distance_AC 0.0;
}

// UGSpacing_2_AL_XLP-CONC-ENCAP-PE_22KV_1P
object line_spacing {
	name UGSpacing_2_AL_XLP-CONC-ENCAP-PE_22KV_1P;
	distance_AB 0.0;
	distance_BC 0.0;
	distance_AC 0.0;
}

// UGSpacing_2_AL_XLP-CONC-ENCAP-PE_22KV_3P
object line_spacing {
	name UGSpacing_2_AL_XLP-CONC-ENCAP-PE_22KV_3P;
	distance_AB 0.147636;
	distance_BC 0.147636;
	distance_AC 0.295272;
}

// UGSpacing_2_AL_XLP-CONC-CIC_22KV_1P
object line_spacing {
	name UGSpacing_2_AL_XLP-CONC-CIC_22KV_1P;
	distance_AB 0.0;
	distance_BC 0.0;
	distance_AC 0.0;
}

// UGSpacing_1100_AL_EPR-CONC-ENCAP-PE_3P
object line_spacing {
	name UGSpacing_1100_AL_EPR-CONC-ENCAP-PE_3P;
	distance_AB 0.147636;
	distance_BC 0.147636;
	distance_AC 0.295272;
}

// UGSpacing_2_AL_XLP-CONC-ENCAP-PE_22KV_2P
object line_spacing {
	name UGSpacing_2_AL_XLP-CONC-ENCAP-PE_22KV_2P;
	distance_AB 0.147636;
	distance_BC 0.0;
	distance_AC 0.0;
}

// UGSpacing_1000_AL_XLP-CONC-PVC_22KV_3P
object line_spacing {
	name UGSpacing_1000_AL_XLP-CONC-PVC_22KV_3P;
	distance_AB 0.147636;
	distance_BC 0.147636;
	distance_AC 0.295272;
}

// OHSpacing_TRIANGULAR_2P_30
object line_spacing {
	name OHSpacing_TRIANGULAR_2P_30;
	distance_AB 2.4999696;
	distance_BC 2.4999696;
	distance_AC 2.4999696;
	distance_AN 2.4999696;
	distance_BN 2.4999696;
	distance_CN 2.4999696;
}

// OHSpacing_HORIZONTAL_1P_73
object line_spacing {
	name OHSpacing_HORIZONTAL_1P_73;
	distance_AB 6.08325936;
	distance_BC 6.08325936;
	distance_AC 6.08325936;
	distance_AN 8.2732327296;
	distance_BN 8.2732327296;
	distance_CN 8.2732327296;
}

// OHSpacing_TRIANGULAR_2P_50
object line_spacing {
	name OHSpacing_TRIANGULAR_2P_50;
	distance_AB 4.166616;
	distance_BC 4.166616;
	distance_AC 4.166616;
	distance_AN 5.66659776;
	distance_BN 5.66659776;
	distance_CN 5.66659776;
}

// OHSpacing_TRIANGULAR_2P_35
object line_spacing {
	name OHSpacing_TRIANGULAR_2P_35;
	distance_AB 2.9169658416;
	distance_BC 2.9169658416;
	distance_AC 2.9169658416;
	distance_AN 2.9169658416;
	distance_BN 2.9169658416;
	distance_CN 2.9169658416;
}

// OHSpacing_TRIANGULAR_2P_52
object line_spacing {
	name OHSpacing_TRIANGULAR_2P_52;
	distance_AB 4.33328064;
	distance_BC 4.33328064;
	distance_AC 4.33328064;
	distance_AN 4.3332773592;
	distance_BN 4.3332773592;
	distance_CN 4.3332773592;
}

// UGSpacing_1/0_AL_EPR-CONC-PVC_22KV_2P
object line_spacing {
	name UGSpacing_1/0_AL_EPR-CONC-PVC_22KV_2P;
	distance_AB 0.147636;
	distance_BC 0.0;
	distance_AC 0.0;
}

// OHSpacing_TRIANGULAR_2P_39
object line_spacing {
	name OHSpacing_TRIANGULAR_2P_39;
	distance_AB 3.24996048;
	distance_BC 3.24996048;
	distance_AC 3.24996048;
	distance_AN 3.24996048;
	distance_BN 3.24996048;
	distance_CN 3.24996048;
}

// OHSpacing_TRIANGULAR_1P_73
object line_spacing {
	name OHSpacing_TRIANGULAR_1P_73;
	distance_AB 6.0832560792;
	distance_BC 6.0832560792;
	distance_AC 6.0832560792;
	distance_AN 9.9998784;
	distance_BN 9.9998784;
	distance_CN 9.9998784;
}

// OHSpacing_HORIZONTAL_1P_52
object line_spacing {
	name OHSpacing_HORIZONTAL_1P_52;
	distance_AB 4.3332773592;
	distance_BC 4.3332773592;
	distance_AC 4.3332773592;
	distance_AN 6.6665888808;
	distance_BN 6.6665888808;
	distance_CN 6.6665888808;
}

// UGSpacing_1/0_AL_EPR-CONC-ENCAP-PE_3P
object line_spacing {
	name UGSpacing_1/0_AL_EPR-CONC-ENCAP-PE_3P;
	distance_AB 0.147636;
	distance_BC 0.147636;
	distance_AC 0.295272;
}

// OHSpacing_HORIZONTAL_2P_73
object line_spacing {
	name OHSpacing_HORIZONTAL_2P_73;
	distance_AB 6.08325936;
	distance_BC 6.08325936;
	distance_AC 6.08325936;
	distance_AN 8.2732327296;
	distance_BN 8.2732327296;
	distance_CN 8.2732327296;
}

// OHSpacing_TRIANGULAR_3P_56
object line_spacing {
	name OHSpacing_TRIANGULAR_3P_56;
	distance_AB 4.66660992;
	distance_BC 4.66660992;
	distance_AC 4.66660992;
	distance_AN 6.3465894912;
	distance_BN 6.3465894912;
	distance_CN 6.3465894912;
}

// UGSpacing_1/0_AL_XLP-CON-ENCP-PE_22KV_3P
object line_spacing {
	name UGSpacing_1/0_AL_XLP-CON-ENCP-PE_22KV_3P;
	distance_AB 0.147636;
	distance_BC 0.147636;
	distance_AC 0.295272;
}

// OHSpacing_HORIZONTAL_2P_56
object line_spacing {
	name OHSpacing_HORIZONTAL_2P_56;
	distance_AB 4.66660992;
	distance_BC 4.66660992;
	distance_AC 4.66660992;
	distance_AN 6.99991488;
	distance_BN 6.99991488;
	distance_CN 6.99991488;
}

// OHSpacing_TRIANGULAR_2P_88
object line_spacing {
	name OHSpacing_TRIANGULAR_2P_88;
	distance_AB 7.3329095184;
	distance_BC 7.3329095184;
	distance_AC 7.3329095184;
	distance_AN 7.3329095184;
	distance_BN 7.3329095184;
	distance_CN 7.3329095184;
}

// OHSpacing_HORIZONTAL_2P_52
object line_spacing {
	name OHSpacing_HORIZONTAL_2P_52;
	distance_AB 4.3332773592;
	distance_BC 4.3332773592;
	distance_AC 4.3332773592;
	distance_AN 6.6665888808;
	distance_BN 6.6665888808;
	distance_CN 6.6665888808;
}

// UGSpacing_2_AL_PEC_22KV_2P
object line_spacing {
	name UGSpacing_2_AL_PEC_22KV_2P;
	distance_AB 0.147636;
	distance_BC 0.0;
	distance_AC 0.0;
}

// OHSpacing_HORIZONTAL_2P_50
object line_spacing {
	name OHSpacing_HORIZONTAL_2P_50;
	distance_AB 4.166648808;
	distance_BC 4.166648808;
	distance_AC 4.166648808;
	distance_AN 4.166648808;
	distance_BN 4.166648808;
	distance_CN 4.166648808;
}

// UGSpacing_1/0_AL_EPR-CONC-ENCAP-PE_1P
object line_spacing {
	name UGSpacing_1/0_AL_EPR-CONC-ENCAP-PE_1P;
	distance_AB 0.0;
	distance_BC 0.0;
	distance_AC 0.0;
}

// OHSpacing_HORIZONTAL_3P_88
object line_spacing {
	name OHSpacing_HORIZONTAL_3P_88;
	distance_AB 7.3332408792;
	distance_BC 7.3332408792;
	distance_AC 7.3332408792;
	distance_AN 9.9998784;
	distance_BN 9.9998784;
	distance_CN 9.9998784;
}

// UGSpacing_2_AL_PEC_22KV_3P
object line_spacing {
	name UGSpacing_2_AL_PEC_22KV_3P;
	distance_AB 0.147636;
	distance_BC 0.147636;
	distance_AC 0.295272;
}

// OHSpacing_TRIANGULAR_3P_30
object line_spacing {
	name OHSpacing_TRIANGULAR_3P_30;
	distance_AB 2.4999696;
	distance_BC 2.4999696;
	distance_AC 2.4999696;
	distance_AN 4.9999392;
	distance_BN 4.9999392;
	distance_CN 4.9999392;
}

// OHSpacing_TRIANGULAR_3P_36
object line_spacing {
	name OHSpacing_TRIANGULAR_3P_36;
	distance_AB 2.99996352;
	distance_BC 2.99996352;
	distance_AC 2.99996352;
	distance_AN 4.0799503872;
	distance_BN 4.0799503872;
	distance_CN 4.0799503872;
}

// OHSpacing_TRIANGULAR_3P_35
object line_spacing {
	name OHSpacing_TRIANGULAR_3P_35;
	distance_AB 2.9166312;
	distance_BC 2.9166312;
	distance_AC 2.9166312;
	distance_AN 5.49993312;
	distance_BN 5.49993312;
	distance_CN 5.49993312;
}

// UGSpacing_DEFAULT
object line_spacing {
	name UGSpacing_DEFAULT;
	distance_AB 0.147636;
	distance_BC 0.147636;
	distance_AC 0.295272;
}

// OHSpacing_TRIANGULAR_3P_39
object line_spacing {
	name OHSpacing_TRIANGULAR_3P_39;
	distance_AB 3.24996048;
	distance_BC 3.24996048;
	distance_AC 3.24996048;
	distance_AN 4.4199462528;
	distance_BN 4.4199462528;
	distance_CN 4.4199462528;
}

// UGSpacing_2_AL_XLP-CONC_22KV_3P
object line_spacing {
	name UGSpacing_2_AL_XLP-CONC_22KV_3P;
	distance_AB 0.147636;
	distance_BC 0.147636;
	distance_AC 0.295272;
}

// OHSpacing_VERTICAL_2P_88
object line_spacing {
	name OHSpacing_VERTICAL_2P_88;
	distance_AB 7.33324416;
	distance_BC 7.33324416;
	distance_AC 7.33324416;
	distance_AN 9.9732120576;
	distance_BN 9.9732120576;
	distance_CN 9.9732120576;
}

// UGSpacing_1/0_AL_XLP-CON-ENCP-PE_22KV_2P
object line_spacing {
	name UGSpacing_1/0_AL_XLP-CON-ENCP-PE_22KV_2P;
	distance_AB 0.147636;
	distance_BC 0.0;
	distance_AC 0.0;
}

// OHSpacing_TRIANGULAR_1P_45
object line_spacing {
	name OHSpacing_TRIANGULAR_1P_45;
	distance_AB 3.7499544;
	distance_BC 3.7499544;
	distance_AC 3.7499544;
	distance_AN 3.7499544;
	distance_BN 3.7499544;
	distance_CN 3.7499544;
}

// UGSpacing_1/0_AL_EPR-CONC-ENCAP-PE_1P&N
object line_spacing {
	name UGSpacing_1/0_AL_EPR-CONC-ENCAP-PE_1P&N;
	distance_AB 0.0;
	distance_BC 0.0;
	distance_AC 0.0;
}

// OHSpacing_TRIANGULAR_3P_45
object line_spacing {
	name OHSpacing_TRIANGULAR_3P_45;
	distance_AB 3.7499544;
	distance_BC 3.7499544;
	distance_AC 3.7499544;
	distance_AN 4.9999392;
	distance_BN 4.9999392;
	distance_CN 4.9999392;
}

// UGSpacing_2_AL_PEC_22KV_1P
object line_spacing {
	name UGSpacing_2_AL_PEC_22KV_1P;
	distance_AB 0.0;
	distance_BC 0.0;
	distance_AC 0.0;
}

// UGSpacing_2_AL_XLP-CONC-CIC_22KV_2P
object line_spacing {
	name UGSpacing_2_AL_XLP-CONC-CIC_22KV_2P;
	distance_AB 0.147636;
	distance_BC 0.0;
	distance_AC 0.0;
}

// OHSpacing_HORIZONTAL_3P_52
object line_spacing {
	name OHSpacing_HORIZONTAL_3P_52;
	distance_AB 4.3332773592;
	distance_BC 4.3332773592;
	distance_AC 4.3332773592;
	distance_AN 6.6665888808;
	distance_BN 6.6665888808;
	distance_CN 6.6665888808;
}

// UGSpacing_1/0_AL_XLP-CONC-PVC_22KV_3P
object line_spacing {
	name UGSpacing_1/0_AL_XLP-CONC-PVC_22KV_3P;
	distance_AB 0.147636;
	distance_BC 0.147636;
	distance_AC 0.295272;
}

// OHSpacing_HORIZONTAL_3P_36
object line_spacing {
	name OHSpacing_HORIZONTAL_3P_36;
	distance_AB 2.99996352;
	distance_BC 2.99996352;
	distance_AC 2.99996352;
	distance_AN 4.0799503872;
	distance_BN 4.0799503872;
	distance_CN 4.0799503872;
}

// OHSpacing_HORIZONTAL_3P_56
object line_spacing {
	name OHSpacing_HORIZONTAL_3P_56;
	distance_AB 4.66660992;
	distance_BC 4.66660992;
	distance_AC 4.66660992;
	distance_AN 6.99991488;
	distance_BN 6.99991488;
	distance_CN 6.99991488;
}

// OHSpacing_TRIANGULAR_3P_49
object line_spacing {
	name OHSpacing_TRIANGULAR_3P_49;
	distance_AB 4.08328368;
	distance_BC 4.08328368;
	distance_AC 4.08328368;
	distance_AN 5.5532658048;
	distance_BN 5.5532658048;
	distance_CN 5.5532658048;
}

// OHSpacing_TRIANGULAR_3P_60
object line_spacing {
	name OHSpacing_TRIANGULAR_3P_60;
	distance_AB 4.9999392;
	distance_BC 4.9999392;
	distance_AC 4.9999392;
	distance_AN 6.799917312;
	distance_BN 6.799917312;
	distance_CN 6.799917312;
}

// UGSpacing_2_AL_XLP-CONC-PVC_22KV_1P
object line_spacing {
	name UGSpacing_2_AL_XLP-CONC-PVC_22KV_1P;
	distance_AB 0.0;
	distance_BC 0.0;
	distance_AC 0.0;
}

// OHSpacing_TRIANGULAR_2P_45
object line_spacing {
	name OHSpacing_TRIANGULAR_2P_45;
	distance_AB 3.7499544;
	distance_BC 3.7499544;
	distance_AC 3.7499544;
	distance_AN 3.7499544;
	distance_BN 3.7499544;
	distance_CN 3.7499544;
}

// UGSpacing_2_AL_XLP-PVC_15KV_2P
object line_spacing {
	name UGSpacing_2_AL_XLP-PVC_15KV_2P;
	distance_AB 0.147636;
	distance_BC 0.0;
	distance_AC 0.0;
}

// UGSpacing_1/0_AL_XLP-CONC-CIC_22KV_1P
object line_spacing {
	name UGSpacing_1/0_AL_XLP-CONC-CIC_22KV_1P;
	distance_AB 0.0;
	distance_BC 0.0;
	distance_AC 0.0;
}

// OHSpacing_TRIANGULAR_1P_88
object line_spacing {
	name OHSpacing_TRIANGULAR_1P_88;
	distance_AB 7.33324416;
	distance_BC 7.33324416;
	distance_AC 7.33324416;
	distance_AN 9.9732120576;
	distance_BN 9.9732120576;
	distance_CN 9.9732120576;
}

// UGSpacing_2_AL_XLP-CONC-PVC_22KV_3P
object line_spacing {
	name UGSpacing_2_AL_XLP-CONC-PVC_22KV_3P;
	distance_AB 0.147636;
	distance_BC 0.147636;
	distance_AC 0.295272;
}

// UGSpacing_2_AL_XLP-PVC_22KV_1P
object line_spacing {
	name UGSpacing_2_AL_XLP-PVC_22KV_1P;
	distance_AB 0.0;
	distance_BC 0.0;
	distance_AC 0.0;
}

// UGSpacing_350_AL_XLP-CONC-PVC_22KV_3P
object line_spacing {
	name UGSpacing_350_AL_XLP-CONC-PVC_22KV_3P;
	distance_AB 0.147636;
	distance_BC 0.147636;
	distance_AC 0.295272;
}

// OHSpacing_TRIANGULAR_2P_49
object line_spacing {
	name OHSpacing_TRIANGULAR_2P_49;
	distance_AB 4.08328368;
	distance_BC 4.08328368;
	distance_AC 4.08328368;
	distance_AN 5.5532658048;
	distance_BN 5.5532658048;
	distance_CN 5.5532658048;
}

// OHSpacing_VERTICAL_2P_18
object line_spacing {
	name OHSpacing_VERTICAL_2P_18;
	distance_AB 1.49998176;
	distance_BC 1.49998176;
	distance_AC 1.49998176;
	distance_AN 1.49998176;
	distance_BN 1.49998176;
	distance_CN 1.49998176;
}

// UGSpacing_600_AL_EPR-CONC-ENCAP-PE_3P
object line_spacing {
	name UGSpacing_600_AL_EPR-CONC-ENCAP-PE_3P;
	distance_AB 0.147636;
	distance_BC 0.147636;
	distance_AC 0.295272;
}

// OHSpacing_HORIZONTAL_2P_45
object line_spacing {
	name OHSpacing_HORIZONTAL_2P_45;
	distance_AB 3.7499544;
	distance_BC 3.7499544;
	distance_AC 3.7499544;
	distance_AN 4.9999392;
	distance_BN 4.9999392;
	distance_CN 4.9999392;
}

// OHSpacing_TRIANGULAR_3P_88
object line_spacing {
	name OHSpacing_TRIANGULAR_3P_88;
	distance_AB 7.33324416;
	distance_BC 7.33324416;
	distance_AC 7.33324416;
	distance_AN 9.9732120576;
	distance_BN 9.9732120576;
	distance_CN 9.9732120576;
}

// OHSpacing_TRIANGULAR_2P_73
object line_spacing {
	name OHSpacing_TRIANGULAR_2P_73;
	distance_AB 6.0829247184;
	distance_BC 6.0829247184;
	distance_AC 6.0829247184;
	distance_AN 6.0829247184;
	distance_BN 6.0829247184;
	distance_CN 6.0829247184;
}

// UGSpacing_1/0_AL_XLP-CONC-PVC_22KV_1P
object line_spacing {
	name UGSpacing_1/0_AL_XLP-CONC-PVC_22KV_1P;
	distance_AB 0.0;
	distance_BC 0.0;
	distance_AC 0.0;
}

// OHSpacing_TRIANGULAR_2P_60
object line_spacing {
	name OHSpacing_TRIANGULAR_2P_60;
	distance_AB 4.9999392;
	distance_BC 4.9999392;
	distance_AC 4.9999392;
	distance_AN 6.799917312;
	distance_BN 6.799917312;
	distance_CN 6.799917312;
}

// OHSpacing_HORIZONTAL_1P_88
object line_spacing {
	name OHSpacing_HORIZONTAL_1P_88;
	distance_AB 7.3332408792;
	distance_BC 7.3332408792;
	distance_AC 7.3332408792;
	distance_AN 7.3332408792;
	distance_BN 7.3332408792;
	distance_CN 7.3332408792;
}

// UGSpacing_4/0_AL_XLP-CONC-PVC_22KV_3P
object line_spacing {
	name UGSpacing_4/0_AL_XLP-CONC-PVC_22KV_3P;
	distance_AB 0.147636;
	distance_BC 0.147636;
	distance_AC 0.295272;
}

// UGSpacing_700_AL_XLP-CONC-PVC_22KV_3P
object line_spacing {
	name UGSpacing_700_AL_XLP-CONC-PVC_22KV_3P;
	distance_AB 0.147636;
	distance_BC 0.147636;
	distance_AC 0.295272;
}

// UGSpacing_1/0_AL_XLP-CON-ENCP-PE_22KV_1P&N
object line_spacing {
	name UGSpacing_1/0_AL_XLP-CON-ENCP-PE_22KV_1P&N;
	distance_AB 0.0;
	distance_BC 0.0;
	distance_AC 0.0;
}

// UGSpacing_2_AL_XLP-PVC_15KV_3P
object line_spacing {
	name UGSpacing_2_AL_XLP-PVC_15KV_3P;
	distance_AB 0.147636;
	distance_BC 0.147636;
	distance_AC 0.295272;
}

// UGSpacing_1/0_AL_XLP-CON-ENCP-PE_22KV_1P
object line_spacing {
	name UGSpacing_1/0_AL_XLP-CON-ENCP-PE_22KV_1P;
	distance_AB 0.0;
	distance_BC 0.0;
	distance_AC 0.0;
}

// OHSpacing_VERTICAL_3P_88
object line_spacing {
	name OHSpacing_VERTICAL_3P_88;
	distance_AB 7.33324416;
	distance_BC 7.33324416;
	distance_AC 7.33324416;
	distance_AN 9.9732120576;
	distance_BN 9.9732120576;
	distance_CN 9.9732120576;
}

// UGSpacing_1/0_AL_XLP-CONC-PVC_22KV_3P&N
object line_spacing {
	name UGSpacing_1/0_AL_XLP-CONC-PVC_22KV_3P&N;
	distance_AB 0.147636;
	distance_BC 0.147636;
	distance_AC 0.295272;
}

// UGSpacing_2_AL_XLP-CONC-PVC_22KV_2P
object line_spacing {
	name UGSpacing_2_AL_XLP-CONC-PVC_22KV_2P;
	distance_AB 0.147636;
	distance_BC 0.0;
	distance_AC 0.0;
}

//*********************************************
// Line Config objects
//*********************************************
// L_1800067595_LineConfig
object line_configuration {
	name L_1800067595_LineConfig;
	conductor_A OHCond_4_ACSR_I;
	conductor_B OHCond_4_ACSR_I;
	spacing OHSpacing_HORIZONTAL_2P_52;
}

// L_1800067152_LineConfig
object line_configuration {
	name L_1800067152_LineConfig;
	conductor_A OHCond_4_ACSR_I;
	conductor_B OHCond_4_ACSR_I;
	conductor_C OHCond_4_ACSR_I;
	spacing OHSpacing_HORIZONTAL_3P_52;
}

// L_1800075905_LineConfig
object line_configuration {
	name L_1800075905_LineConfig;
	conductor_A OHCond_4_ACSR_I;
	conductor_B OHCond_4_ACSR_I;
	spacing OHSpacing_HORIZONTAL_2P_88;
}

// L_1800068591_LineConfig
object line_configuration {
	name L_1800068591_LineConfig;
	conductor_A OHCond_4_ACSR_I;
	conductor_B OHCond_4_ACSR_I;
	spacing OHSpacing_TRIANGULAR_2P_45;
}

// L_1800066995_LineConfig
object line_configuration {
	name L_1800066995_LineConfig;
	conductor_A OHCond_4_ACSR_I;
	conductor_B OHCond_4_ACSR_I;
	spacing OHSpacing_HORIZONTAL_2P_52;
}

// L_1800067958_LineConfig
object line_configuration {
	name L_1800067958_LineConfig;
	conductor_A OHCond_4_ACSR_I;
	conductor_B OHCond_4_ACSR_I;
	conductor_C OHCond_4_ACSR_I;
	spacing OHSpacing_TRIANGULAR_3P_45;
}

// L_1800037016_LineConfig
object line_configuration {
	name L_1800037016_LineConfig;
	conductor_A OHCond_4_ACSR_I;
	conductor_B OHCond_4_ACSR_I;
	conductor_C OHCond_4_ACSR_I;
	spacing OHSpacing_HORIZONTAL_3P_52;
}

// L_1800067827_LineConfig
object line_configuration {
	name L_1800067827_LineConfig;
	conductor_A OHCond_4_ACSR_I;
	conductor_C OHCond_4_ACSR_I;
	spacing OHSpacing_HORIZONTAL_2P_88;
}

// L_1800008295_LineConfig
object line_configuration {
	name L_1800008295_LineConfig;
	conductor_A OHCond_4_ACSR_I;
	conductor_B OHCond_4_ACSR_I;
	spacing OHSpacing_TRIANGULAR_2P_45;
}

// L_1800066548_LineConfig
object line_configuration {
	name L_1800066548_LineConfig;
	conductor_A OHCond_4_ACSR_I;
	conductor_B OHCond_4_ACSR_I;
	spacing OHSpacing_HORIZONTAL_2P_52;
}

// L_1800066313_LineConfig
object line_configuration {
	name L_1800066313_LineConfig;
	conductor_A OHCond_4_ACSR_I;
	conductor_B OHCond_4_ACSR_I;
	spacing OHSpacing_HORIZONTAL_2P_52;
}

// L_1800070797_LineConfig
object line_configuration {
	name L_1800070797_LineConfig;
	conductor_A OHCond_4_ACSR_I;
	conductor_B OHCond_4_ACSR_I;
	spacing OHSpacing_HORIZONTAL_2P_52;
}

// L_1800008049_LineConfig
object line_configuration {
	name L_1800008049_LineConfig;
	conductor_A OHCond_715_AAC_I;
	conductor_B OHCond_715_AAC_I;
	conductor_C OHCond_715_AAC_I;
	spacing OHSpacing_TRIANGULAR_3P_52;
}

// L_1800067268_LineConfig
object line_configuration {
	name L_1800067268_LineConfig;
	conductor_A OHCond_4_ACSR_I;
	conductor_B OHCond_4_ACSR_I;
	spacing OHSpacing_TRIANGULAR_2P_45;
}

// L_1800067932_LineConfig
object line_configuration {
	name L_1800067932_LineConfig;
	conductor_A OHCond_4_ACSR_I;
	conductor_B OHCond_4_ACSR_I;
	conductor_C OHCond_4_ACSR_I;
	spacing OHSpacing_TRIANGULAR_3P_45;
}

// L_1800068558_LineConfig
object line_configuration {
	name L_1800068558_LineConfig;
	conductor_A OHCond_4_ACSR_I;
	conductor_B OHCond_4_ACSR_I;
	spacing OHSpacing_TRIANGULAR_2P_30;
}

// L_1800032293_LineConfig
object line_configuration {
	name L_1800032293_LineConfig;
	conductor_A OHCond_4_ACSR_I;
	conductor_B OHCond_4_ACSR_I;
	spacing OHSpacing_HORIZONTAL_2P_88;
}

// L_1800066532_LineConfig
object line_configuration {
	name L_1800066532_LineConfig;
	conductor_A OHCond_4_ACSR_I;
	conductor_B OHCond_4_ACSR_I;
	spacing OHSpacing_HORIZONTAL_2P_88;
}

// L_1800070240_LineConfig
object line_configuration {
	name L_1800070240_LineConfig;
	conductor_A OHCond_4_ACSR_I;
	conductor_B OHCond_4_ACSR_I;
	conductor_C OHCond_4_ACSR_I;
	spacing OHSpacing_HORIZONTAL_3P_52;
}

// L_1800066929_LineConfig
object line_configuration {
	name L_1800066929_LineConfig;
	conductor_A OHCond_4_ACSR_I;
	conductor_B OHCond_4_ACSR_I;
	conductor_C OHCond_4_ACSR_I;
	spacing OHSpacing_HORIZONTAL_3P_52;
}

// L_1800067314_LineConfig
object line_configuration {
	name L_1800067314_LineConfig;
	conductor_A OHCond_4_ACSR_I;
	conductor_B OHCond_4_ACSR_I;
	spacing OHSpacing_TRIANGULAR_2P_49;
}

// L_1800092528_LineConfig
object line_configuration {
	name L_1800092528_LineConfig;
	conductor_A OHCond_4_ACSR_I;
	conductor_B OHCond_4_ACSR_I;
	spacing OHSpacing_HORIZONTAL_2P_52;
}

// L_1800068083_LineConfig
object line_configuration {
	name L_1800068083_LineConfig;
	conductor_A OHCond_4_ACSR_I;
	conductor_B OHCond_4_ACSR_I;
	spacing OHSpacing_HORIZONTAL_2P_52;
}

// L_1800070818_LineConfig
object line_configuration {
	name L_1800070818_LineConfig;
	conductor_A OHCond_4_ACSR_I;
	conductor_B OHCond_4_ACSR_I;
	conductor_C OHCond_4_ACSR_I;
	spacing OHSpacing_HORIZONTAL_3P_52;
}

// L_1800069476_LineConfig
object line_configuration {
	name L_1800069476_LineConfig;
	conductor_A OHCond_2_CU_I;
	conductor_B OHCond_2_CU_I;
	conductor_C OHCond_2_CU_I;
	spacing OHSpacing_HORIZONTAL_3P_52;
}

// L_1800085752_LineConfig
object line_configuration {
	name L_1800085752_LineConfig;
	conductor_A OHCond_6_CU_I;
	conductor_B OHCond_6_CU_I;
	conductor_C OHCond_6_CU_I;
	spacing OHSpacing_HORIZONTAL_3P_52;
}

// L_1800007813_LineConfig
object line_configuration {
	name L_1800007813_LineConfig;
	conductor_A OHCond_4_ACSR_I;
	conductor_B OHCond_4_ACSR_I;
	conductor_C OHCond_4_ACSR_I;
	spacing OHSpacing_HORIZONTAL_3P_52;
}

// L_1800007101_LineConfig
object line_configuration {
	name L_1800007101_LineConfig;
	conductor_A OHCond_4_ACSR_I;
	conductor_B OHCond_4_ACSR_I;
	spacing OHSpacing_HORIZONTAL_2P_88;
}

// L_1800067233_LineConfig
object line_configuration {
	name L_1800067233_LineConfig;
	conductor_A OHCond_4_ACSR_I;
	conductor_B OHCond_4_ACSR_I;
	spacing OHSpacing_TRIANGULAR_2P_45;
}

// L_1800071962_LineConfig
object line_configuration {
	name L_1800071962_LineConfig;
	conductor_A OHCond_4_ACSR_I;
	conductor_B OHCond_4_ACSR_I;
	spacing OHSpacing_TRIANGULAR_2P_45;
}

// L_1800066554_LineConfig
object line_configuration {
	name L_1800066554_LineConfig;
	conductor_A OHCond_4_ACSR_I;
	conductor_B OHCond_4_ACSR_I;
	spacing OHSpacing_HORIZONTAL_2P_52;
}

// L_1800068051_LineConfig
object line_configuration {
	name L_1800068051_LineConfig;
	conductor_A OHCond_4_ACSR_I;
	conductor_B OHCond_4_ACSR_I;
	conductor_C OHCond_4_ACSR_I;
	spacing OHSpacing_HORIZONTAL_3P_52;
}

// L_1800071495_LineConfig
object line_configuration {
	name L_1800071495_LineConfig;
	conductor_A OHCond_4_ACSR_I;
	conductor_B OHCond_4_ACSR_I;
	conductor_C OHCond_4_ACSR_I;
	spacing OHSpacing_HORIZONTAL_3P_52;
}

// L_1800024841_LineConfig
object line_configuration {
	name L_1800024841_LineConfig;
	conductor_A OHCond_4_ACSR_I;
	conductor_B OHCond_4_ACSR_I;
	spacing OHSpacing_TRIANGULAR_2P_45;
}

// L_1800013244_LineConfig
object line_configuration {
	name L_1800013244_LineConfig;
	conductor_A OHCond_4_ACSR_I;
	conductor_B OHCond_4_ACSR_I;
	spacing OHSpacing_HORIZONTAL_2P_52;
}

// L_1800069496_LineConfig
object line_configuration {
	name L_1800069496_LineConfig;
	conductor_A OHCond_4_ACSR_I;
	conductor_B OHCond_4_ACSR_I;
	spacing OHSpacing_HORIZONTAL_2P_52;
}

// L_1800071577_LineConfig
object line_configuration {
	name L_1800071577_LineConfig;
	conductor_A OHCond_4_ACSR_I;
	conductor_N OHCond_4_ACSR_I;
	spacing OHSpacing_HORIZONTAL_1P_88;
}

// L_1800008633_LineConfig
object line_configuration {
	name L_1800008633_LineConfig;
	conductor_A OHCond_4_ACSR_I;
	conductor_B OHCond_4_ACSR_I;
	spacing OHSpacing_TRIANGULAR_2P_45;
}

// L_1800066965_LineConfig
object line_configuration {
	name L_1800066965_LineConfig;
	conductor_A OHCond_4_ACSR_I;
	conductor_B OHCond_4_ACSR_I;
	spacing OHSpacing_TRIANGULAR_2P_45;
}

// L_1800070018_LineConfig
object line_configuration {
	name L_1800070018_LineConfig;
	conductor_A OHCond_4_ACSR_I;
	conductor_B OHCond_4_ACSR_I;
	spacing OHSpacing_HORIZONTAL_2P_88;
}

// L_1800070761_LineConfig
object line_configuration {
	name L_1800070761_LineConfig;
	conductor_A OHCond_6_CU_I;
	conductor_B OHCond_6_CU_I;
	conductor_C OHCond_6_CU_I;
	spacing OHSpacing_HORIZONTAL_3P_52;
}

// L_1800070851_LineConfig
object line_configuration {
	name L_1800070851_LineConfig;
	conductor_A OHCond_6_CU_I;
	conductor_B OHCond_6_CU_I;
	conductor_C OHCond_6_CU_I;
	spacing OHSpacing_HORIZONTAL_3P_52;
}

// L_1800067449_LineConfig
object line_configuration {
	name L_1800067449_LineConfig;
	conductor_A OHCond_6_CU_I;
	conductor_B OHCond_6_CU_I;
	conductor_C OHCond_6_CU_I;
	spacing OHSpacing_HORIZONTAL_3P_52;
}

// L_1800039027_LineConfig
object line_configuration {
	name L_1800039027_LineConfig;
	conductor_A OHCond_4_ACSR_I;
	conductor_B OHCond_4_ACSR_I;
	spacing OHSpacing_HORIZONTAL_2P_52;
}

// L_1800047369_LineConfig
object line_configuration {
	name L_1800047369_LineConfig;
	conductor_A OHCond_4_ACSR_I;
	conductor_B OHCond_4_ACSR_I;
	spacing OHSpacing_HORIZONTAL_2P_88;
}

// L_1800072531_LineConfig
object line_configuration {
	name L_1800072531_LineConfig;
	conductor_A OHCond_4_ACSR_I;
	conductor_B OHCond_4_ACSR_I;
	conductor_C OHCond_4_ACSR_I;
	spacing OHSpacing_HORIZONTAL_3P_52;
}

// L_1800044635_LineConfig
object line_configuration {
	name L_1800044635_LineConfig;
	conductor_A OHCond_4_ACSR_I;
	conductor_B OHCond_4_ACSR_I;
	conductor_C OHCond_4_ACSR_I;
	spacing OHSpacing_HORIZONTAL_3P_52;
}

// L_1800068945_LineConfig
object line_configuration {
	name L_1800068945_LineConfig;
	conductor_A OHCond_715_AAC_I;
	conductor_B OHCond_715_AAC_I;
	conductor_C OHCond_715_AAC_I;
	spacing OHSpacing_HORIZONTAL_3P_52;
}

// L_1800007812_LineConfig
object line_configuration {
	name L_1800007812_LineConfig;
	conductor_A OHCond_4_ACSR_I;
	conductor_B OHCond_4_ACSR_I;
	conductor_C OHCond_4_ACSR_I;
	spacing OHSpacing_HORIZONTAL_3P_52;
}

// L_1800068415_LineConfig
object line_configuration {
	name L_1800068415_LineConfig;
	conductor_A OHCond_4_ACSR_I;
	conductor_C OHCond_4_ACSR_I;
	spacing OHSpacing_TRIANGULAR_2P_45;
}

// L_1800074446_LineConfig
object line_configuration {
	name L_1800074446_LineConfig;
	conductor_A OHCond_4_ACSR_I;
	conductor_B OHCond_4_ACSR_I;
	spacing OHSpacing_HORIZONTAL_2P_88;
}

// L_1800068491_LineConfig
object line_configuration {
	name L_1800068491_LineConfig;
	conductor_A OHCond_4_CU_I;
	conductor_B OHCond_4_CU_I;
	conductor_C OHCond_4_CU_I;
	spacing OHSpacing_HORIZONTAL_3P_52;
}

// L_1800078666_LineConfig
object line_configuration {
	name L_1800078666_LineConfig;
	conductor_A OHCond_2_CU_I;
	conductor_B OHCond_2_CU_I;
	conductor_C OHCond_2_CU_I;
	spacing OHSpacing_HORIZONTAL_3P_52;
}

// L_1800041186_LineConfig
object line_configuration {
	name L_1800041186_LineConfig;
	conductor_A OHCond_4_ACSR_I;
	conductor_B OHCond_4_ACSR_I;
	spacing OHSpacing_HORIZONTAL_2P_88;
}

// L_1800068791_LineConfig
object line_configuration {
	name L_1800068791_LineConfig;
	conductor_A OHCond_4_ACSR_I;
	conductor_B OHCond_4_ACSR_I;
	conductor_C OHCond_4_ACSR_I;
	spacing OHSpacing_HORIZONTAL_3P_52;
}

// L_1800066515_LineConfig
object line_configuration {
	name L_1800066515_LineConfig;
	conductor_A OHCond_4_ACSR_I;
	conductor_B OHCond_4_ACSR_I;
	conductor_C OHCond_4_ACSR_I;
	spacing OHSpacing_HORIZONTAL_3P_52;
}

// L_1800011802_LineConfig
object line_configuration {
	name L_1800011802_LineConfig;
	conductor_A OHCond_4_ACSR_I;
	conductor_B OHCond_4_ACSR_I;
	conductor_C OHCond_4_ACSR_I;
	spacing OHSpacing_TRIANGULAR_3P_30;
}

// L_1800021230_LineConfig
object line_configuration {
	name L_1800021230_LineConfig;
	conductor_A OHCond_4_ACSR_I;
	conductor_B OHCond_4_ACSR_I;
	conductor_C OHCond_4_ACSR_I;
	spacing OHSpacing_HORIZONTAL_3P_52;
}

// L_1800072805_LineConfig
object line_configuration {
	name L_1800072805_LineConfig;
	conductor_A OHCond_4_ACSR_I;
	conductor_C OHCond_4_ACSR_I;
	spacing OHSpacing_TRIANGULAR_2P_45;
}

// L_1800068224_LineConfig
object line_configuration {
	name L_1800068224_LineConfig;
	conductor_A OHCond_6_CU_I;
	conductor_B OHCond_6_CU_I;
	spacing OHSpacing_HORIZONTAL_2P_52;
}

// L_1800008636_LineConfig
object line_configuration {
	name L_1800008636_LineConfig;
	conductor_A OHCond_2_CU_I;
	conductor_B OHCond_2_CU_I;
	conductor_C OHCond_2_CU_I;
	spacing OHSpacing_HORIZONTAL_3P_52;
}

// L_1800067258_LineConfig
object line_configuration {
	name L_1800067258_LineConfig;
	conductor_A OHCond_4_ACSR_I;
	conductor_B OHCond_4_ACSR_I;
	spacing OHSpacing_TRIANGULAR_2P_45;
}

// L_1800007882_LineConfig
object line_configuration {
	name L_1800007882_LineConfig;
	conductor_A OHCond_4_ACSR_I;
	conductor_C OHCond_4_ACSR_I;
	spacing OHSpacing_HORIZONTAL_2P_88;
}

// L_1800094666_LineConfig
object line_configuration {
	name L_1800094666_LineConfig;
	conductor_A OHCond_4_ACSR_I;
	conductor_B OHCond_4_ACSR_I;
	conductor_C OHCond_4_ACSR_I;
	spacing OHSpacing_HORIZONTAL_3P_52;
}

// L_1800042867_LineConfig
object line_configuration {
	name L_1800042867_LineConfig;
	conductor_A OHCond_4_ACSR_I;
	conductor_B OHCond_4_ACSR_I;
	conductor_C OHCond_4_ACSR_I;
	spacing OHSpacing_HORIZONTAL_3P_52;
}

// L_1800007815_LineConfig
object line_configuration {
	name L_1800007815_LineConfig;
	conductor_A OHCond_4_ACSR_I;
	conductor_B OHCond_4_ACSR_I;
	conductor_C OHCond_4_ACSR_I;
	spacing OHSpacing_HORIZONTAL_3P_52;
}

// L_1800070768_LineConfig
object line_configuration {
	name L_1800070768_LineConfig;
	conductor_A OHCond_4_ACSR_I;
	conductor_B OHCond_4_ACSR_I;
	conductor_C OHCond_4_ACSR_I;
	spacing OHSpacing_HORIZONTAL_3P_52;
}

// L_1800068012_LineConfig
object line_configuration {
	name L_1800068012_LineConfig;
	conductor_A OHCond_4_ACSR_I;
	conductor_B OHCond_4_ACSR_I;
	conductor_C OHCond_4_ACSR_I;
	spacing OHSpacing_HORIZONTAL_3P_52;
}

// L_1800070869_LineConfig
object line_configuration {
	name L_1800070869_LineConfig;
	conductor_A OHCond_4_ACSR_I;
	conductor_B OHCond_4_ACSR_I;
	conductor_C OHCond_4_ACSR_I;
	spacing OHSpacing_HORIZONTAL_3P_52;
}

// L_1800023505_LineConfig
object line_configuration {
	name L_1800023505_LineConfig;
	conductor_A OHCond_4_ACSR_I;
	conductor_B OHCond_4_ACSR_I;
	conductor_C OHCond_4_ACSR_I;
	spacing OHSpacing_HORIZONTAL_3P_52;
}

// L_1800076996_LineConfig
object line_configuration {
	name L_1800076996_LineConfig;
	conductor_A OHCond_4_ACSR_I;
	conductor_B OHCond_4_ACSR_I;
	spacing OHSpacing_HORIZONTAL_2P_88;
}

// L_1800011511_LineConfig
object line_configuration {
	name L_1800011511_LineConfig;
	conductor_A OHCond_4_ACSR_I;
	conductor_B OHCond_4_ACSR_I;
	spacing OHSpacing_TRIANGULAR_2P_50;
}

// L_1800071876_LineConfig
object line_configuration {
	name L_1800071876_LineConfig;
	conductor_A OHCond_4_ACSR_I;
	conductor_B OHCond_4_ACSR_I;
	spacing OHSpacing_HORIZONTAL_2P_88;
}

// L_1800068465_LineConfig
object line_configuration {
	name L_1800068465_LineConfig;
	conductor_A OHCond_4_CU_I;
	conductor_B OHCond_4_CU_I;
	spacing OHSpacing_HORIZONTAL_2P_52;
}

// L_1800068873_LineConfig
object line_configuration {
	name L_1800068873_LineConfig;
	conductor_A OHCond_4_ACSR_I;
	conductor_B OHCond_4_ACSR_I;
	spacing OHSpacing_HORIZONTAL_2P_88;
}

// L_1800002379_LineConfig
object line_configuration {
	name L_1800002379_LineConfig;
	conductor_A OHCond_4_ACSR_I;
	conductor_B OHCond_4_ACSR_I;
	spacing OHSpacing_HORIZONTAL_2P_88;
}

// L_1800020226_LineConfig
object line_configuration {
	name L_1800020226_LineConfig;
	conductor_A OHCond_4_ACSR_I;
	conductor_B OHCond_4_ACSR_I;
	conductor_C OHCond_4_ACSR_I;
	spacing OHSpacing_HORIZONTAL_3P_52;
}

// L_1800070195_LineConfig
object line_configuration {
	name L_1800070195_LineConfig;
	conductor_A OHCond_4_ACSR_I;
	conductor_B OHCond_4_ACSR_I;
	spacing OHSpacing_TRIANGULAR_2P_45;
}

// L_1800068255_LineConfig
object line_configuration {
	name L_1800068255_LineConfig;
	conductor_A OHCond_4_ACSR_I;
	conductor_B OHCond_4_ACSR_I;
	spacing OHSpacing_HORIZONTAL_2P_52;
}

// L_1800071339_LineConfig
object line_configuration {
	name L_1800071339_LineConfig;
	conductor_A OHCond_4/0_ACSR_I;
	conductor_B OHCond_4/0_ACSR_I;
	conductor_C OHCond_4/0_ACSR_I;
	spacing OHSpacing_HORIZONTAL_3P_52;
}

// L_1800070814_LineConfig
object line_configuration {
	name L_1800070814_LineConfig;
	conductor_A OHCond_4_ACSR_I;
	conductor_B OHCond_4_ACSR_I;
	conductor_C OHCond_4_ACSR_I;
	spacing OHSpacing_HORIZONTAL_3P_52;
}

// L_1800066420_LineConfig
object line_configuration {
	name L_1800066420_LineConfig;
	conductor_A OHCond_4_ACSR_I;
	conductor_B OHCond_4_ACSR_I;
	spacing OHSpacing_HORIZONTAL_2P_88;
}

// L_1800045696_LineConfig
object line_configuration {
	name L_1800045696_LineConfig;
	conductor_A OHCond_4_ACSR_I;
	conductor_B OHCond_4_ACSR_I;
	spacing OHSpacing_HORIZONTAL_2P_88;
}

// L_1800066831_LineConfig
object line_configuration {
	name L_1800066831_LineConfig;
	conductor_A OHCond_4_ACSR_I;
	conductor_B OHCond_4_ACSR_I;
	conductor_C OHCond_4_ACSR_I;
	spacing OHSpacing_HORIZONTAL_3P_52;
}

// L_1800039762_LineConfig
object line_configuration {
	name L_1800039762_LineConfig;
	conductor_A OHCond_4_ACSR_I;
	conductor_B OHCond_4_ACSR_I;
	conductor_C OHCond_4_ACSR_I;
	spacing OHSpacing_HORIZONTAL_3P_52;
}

// L_1800075903_LineConfig
object line_configuration {
	name L_1800075903_LineConfig;
	conductor_A OHCond_4_ACSR_I;
	conductor_B OHCond_4_ACSR_I;
	spacing OHSpacing_HORIZONTAL_2P_88;
}

// L_1800068819_LineConfig
object line_configuration {
	name L_1800068819_LineConfig;
	conductor_A OHCond_4_ACSR_I;
	conductor_B OHCond_4_ACSR_I;
	spacing OHSpacing_HORIZONTAL_2P_88;
}

// L_1800069716_LineConfig
object line_configuration {
	name L_1800069716_LineConfig;
	conductor_A OHCond_6_CU_I;
	spacing OHSpacing_HORIZONTAL_1P_88;
}

// L_1800070796_LineConfig
object line_configuration {
	name L_1800070796_LineConfig;
	conductor_A OHCond_4_ACSR_I;
	conductor_B OHCond_4_ACSR_I;
	spacing OHSpacing_HORIZONTAL_2P_52;
}

// L_1800034486_LineConfig
object line_configuration {
	name L_1800034486_LineConfig;
	conductor_A OHCond_1/0_CU_I;
	conductor_B OHCond_1/0_CU_I;
	conductor_C OHCond_1/0_CU_I;
	spacing OHSpacing_HORIZONTAL_3P_52;
}

// L_1800035635_LineConfig
object line_configuration {
	name L_1800035635_LineConfig;
	conductor_A OHCond_4_ACSR_I;
	conductor_B OHCond_4_ACSR_I;
	spacing OHSpacing_HORIZONTAL_2P_88;
}

// L_1800007465_LineConfig
object line_configuration {
	name L_1800007465_LineConfig;
	conductor_A OHCond_6_CU_I;
	conductor_B OHCond_6_CU_I;
	conductor_C OHCond_6_CU_I;
	spacing OHSpacing_HORIZONTAL_3P_52;
}

// L_1800068447_LineConfig
object line_configuration {
	name L_1800068447_LineConfig;
	conductor_A OHCond_4_ACSR_I;
	conductor_C OHCond_4_ACSR_I;
	spacing OHSpacing_HORIZONTAL_2P_52;
}

// L_1800010187_LineConfig
object line_configuration {
	name L_1800010187_LineConfig;
	conductor_A OHCond_4_ACSR_I;
	conductor_B OHCond_4_ACSR_I;
	spacing OHSpacing_VERTICAL_2P_18;
}

// L_1800009320_LineConfig
object line_configuration {
	name L_1800009320_LineConfig;
	conductor_A OHCond_4_CU_I;
	conductor_B OHCond_4_CU_I;
	conductor_C OHCond_4_CU_I;
	spacing OHSpacing_HORIZONTAL_3P_52;
}

// L_1800076314_LineConfig
object line_configuration {
	name L_1800076314_LineConfig;
	conductor_A OHCond_4_ACSR_I;
	conductor_C OHCond_4_ACSR_I;
	spacing OHSpacing_TRIANGULAR_2P_52;
}

// L_1800068337_LineConfig
object line_configuration {
	name L_1800068337_LineConfig;
	conductor_A OHCond_4_ACSR_I;
	conductor_B OHCond_4_ACSR_I;
	spacing OHSpacing_HORIZONTAL_2P_88;
}

// L_1800072040_LineConfig
object line_configuration {
	name L_1800072040_LineConfig;
	conductor_A OHCond_4_ACSR_I;
	conductor_B OHCond_4_ACSR_I;
	spacing OHSpacing_HORIZONTAL_2P_88;
}

// L_1800068334_LineConfig
object line_configuration {
	name L_1800068334_LineConfig;
	conductor_A OHCond_4_ACSR_I;
	conductor_B OHCond_4_ACSR_I;
	spacing OHSpacing_HORIZONTAL_2P_88;
}

// L_1800067472_LineConfig
object line_configuration {
	name L_1800067472_LineConfig;
	conductor_A OHCond_4_ACSR_I;
	conductor_B OHCond_4_ACSR_I;
	spacing OHSpacing_TRIANGULAR_2P_45;
}

// L_1800068533_LineConfig
object line_configuration {
	name L_1800068533_LineConfig;
	conductor_A OHCond_4_ACSR_I;
	conductor_B OHCond_4_ACSR_I;
	conductor_C OHCond_4_ACSR_I;
	spacing OHSpacing_HORIZONTAL_3P_52;
}

// L_1800032277_LineConfig
object line_configuration {
	name L_1800032277_LineConfig;
	conductor_A OHCond_4_ACSR_I;
	conductor_B OHCond_4_ACSR_I;
	conductor_C OHCond_4_ACSR_I;
	spacing OHSpacing_HORIZONTAL_3P_52;
}

// L_1800072045_LineConfig
object line_configuration {
	name L_1800072045_LineConfig;
	conductor_A OHCond_4_ACSR_I;
	conductor_B OHCond_4_ACSR_I;
	spacing OHSpacing_HORIZONTAL_2P_88;
}

// L_1800068831_LineConfig
object line_configuration {
	name L_1800068831_LineConfig;
	conductor_A OHCond_4_ACSR_I;
	conductor_B OHCond_4_ACSR_I;
	spacing OHSpacing_HORIZONTAL_2P_88;
}

// L_1800069080_LineConfig
object line_configuration {
	name L_1800069080_LineConfig;
	conductor_A OHCond_6_CU_I;
	conductor_B OHCond_6_CU_I;
	conductor_C OHCond_6_CU_I;
	spacing OHSpacing_HORIZONTAL_3P_52;
}

// L_1800071985_LineConfig
object line_configuration {
	name L_1800071985_LineConfig;
	conductor_A OHCond_4_ACSR_I;
	conductor_B OHCond_4_ACSR_I;
	spacing OHSpacing_HORIZONTAL_2P_88;
}

// L_1800031661_LineConfig
object line_configuration {
	name L_1800031661_LineConfig;
	conductor_A OHCond_4_ACSR_I;
	conductor_B OHCond_4_ACSR_I;
	conductor_C OHCond_4_ACSR_I;
	spacing OHSpacing_HORIZONTAL_3P_52;
}

// L_1800068556_LineConfig
object line_configuration {
	name L_1800068556_LineConfig;
	conductor_A OHCond_4_ACSR_I;
	conductor_B OHCond_4_ACSR_I;
	conductor_C OHCond_4_ACSR_I;
	spacing OHSpacing_TRIANGULAR_3P_30;
}

// L_1800068906_LineConfig
object line_configuration {
	name L_1800068906_LineConfig;
	conductor_A OHCond_4_ACSR_C;
	conductor_B OHCond_4_ACSR_C;
	conductor_C OHCond_4_ACSR_C;
	spacing OHSpacing_TRIANGULAR_3P_35;
}

// L_1800031265_LineConfig
object line_configuration {
	name L_1800031265_LineConfig;
	conductor_A OHCond_4_ACSR_I;
	conductor_B OHCond_4_ACSR_I;
	spacing OHSpacing_HORIZONTAL_2P_88;
}

// L_1800066770_LineConfig
object line_configuration {
	name L_1800066770_LineConfig;
	conductor_A OHCond_2_CU_I;
	conductor_B OHCond_2_CU_I;
	conductor_C OHCond_2_CU_I;
	spacing OHSpacing_HORIZONTAL_3P_52;
}

// L_1800066605_LineConfig
object line_configuration {
	name L_1800066605_LineConfig;
	conductor_A OHCond_4_ACSR_I;
	conductor_B OHCond_4_ACSR_I;
	spacing OHSpacing_HORIZONTAL_2P_52;
}

// L_1800066562_LineConfig
object line_configuration {
	name L_1800066562_LineConfig;
	conductor_A OHCond_4_ACSR_I;
	conductor_B OHCond_4_ACSR_I;
	spacing OHSpacing_HORIZONTAL_2P_52;
}

// L_1800012397_LineConfig
object line_configuration {
	name L_1800012397_LineConfig;
	conductor_A OHCond_4_ACSR_I;
	conductor_B OHCond_4_ACSR_I;
	spacing OHSpacing_HORIZONTAL_2P_88;
}

// L_1800069393_LineConfig
object line_configuration {
	name L_1800069393_LineConfig;
	conductor_A OHCond_4_ACSR_I;
	conductor_B OHCond_4_ACSR_I;
	conductor_C OHCond_4_ACSR_I;
	spacing OHSpacing_HORIZONTAL_3P_52;
}

// L_1800024685_LineConfig
object line_configuration {
	name L_1800024685_LineConfig;
	conductor_A OHCond_397_AAC_I;
	conductor_B OHCond_397_AAC_I;
	conductor_C OHCond_397_AAC_I;
	spacing OHSpacing_TRIANGULAR_3P_45;
}

// L_1800001838_LineConfig
object line_configuration {
	name L_1800001838_LineConfig;
	conductor_A OHCond_715_AAC_I;
	conductor_B OHCond_715_AAC_I;
	conductor_C OHCond_715_AAC_I;
	spacing OHSpacing_HORIZONTAL_3P_52;
}

// L_1800076315_LineConfig
object line_configuration {
	name L_1800076315_LineConfig;
	conductor_A OHCond_4_ACSR_I;
	conductor_B OHCond_4_ACSR_I;
	spacing OHSpacing_TRIANGULAR_2P_45;
}

// L_1800071863_LineConfig
object line_configuration {
	name L_1800071863_LineConfig;
	conductor_A OHCond_4_ACSR_I;
	conductor_B OHCond_4_ACSR_I;
	spacing OHSpacing_HORIZONTAL_2P_88;
}

// L_1800069702_LineConfig
object line_configuration {
	name L_1800069702_LineConfig;
	conductor_A OHCond_4_ACSR_I;
	conductor_B OHCond_4_ACSR_I;
	spacing OHSpacing_HORIZONTAL_2P_88;
}

// L_1800068004_LineConfig
object line_configuration {
	name L_1800068004_LineConfig;
	conductor_A OHCond_4_ACSR_I;
	conductor_B OHCond_4_ACSR_I;
	conductor_C OHCond_4_ACSR_I;
	spacing OHSpacing_HORIZONTAL_3P_52;
}

// L_1800093152_LineConfig
object line_configuration {
	name L_1800093152_LineConfig;
	conductor_A OHCond_6_CU_I;
	conductor_B OHCond_6_CU_I;
	spacing OHSpacing_HORIZONTAL_2P_52;
}

// L_1800068330_LineConfig
object line_configuration {
	name L_1800068330_LineConfig;
	conductor_A OHCond_4_ACSR_I;
	conductor_B OHCond_4_ACSR_I;
	spacing OHSpacing_HORIZONTAL_2P_88;
}

// L_1800000288_LineConfig
object line_configuration {
	name L_1800000288_LineConfig;
	conductor_A OHCond_715_AAC_I;
	conductor_B OHCond_715_AAC_I;
	conductor_C OHCond_715_AAC_I;
	spacing OHSpacing_HORIZONTAL_3P_52;
}

// L_1800072060_LineConfig
object line_configuration {
	name L_1800072060_LineConfig;
	conductor_A OHCond_4_ACSR_I;
	conductor_B OHCond_4_ACSR_I;
	spacing OHSpacing_HORIZONTAL_2P_52;
}

// L_1800032279_LineConfig
object line_configuration {
	name L_1800032279_LineConfig;
	conductor_A OHCond_4_ACSR_I;
	conductor_B OHCond_4_ACSR_I;
	conductor_C OHCond_4_ACSR_I;
	spacing OHSpacing_HORIZONTAL_3P_52;
}

// L_1800066841_LineConfig
object line_configuration {
	name L_1800066841_LineConfig;
	conductor_A OHCond_4_ACSR_I;
	conductor_B OHCond_4_ACSR_I;
	conductor_C OHCond_4_ACSR_I;
	spacing OHSpacing_HORIZONTAL_3P_52;
}

// L_1800069673_LineConfig
object line_configuration {
	name L_1800069673_LineConfig;
	conductor_A OHCond_4_ACSR_I;
	conductor_B OHCond_4_ACSR_I;
	spacing OHSpacing_HORIZONTAL_2P_88;
}

// L_1800070890_LineConfig
object line_configuration {
	name L_1800070890_LineConfig;
	conductor_A OHCond_4_ACSR_I;
	conductor_B OHCond_4_ACSR_I;
	spacing OHSpacing_HORIZONTAL_2P_88;
}

// L_1800021258_LineConfig
object line_configuration {
	name L_1800021258_LineConfig;
	conductor_A OHCond_4_ACSR_I;
	conductor_C OHCond_4_ACSR_I;
	spacing OHSpacing_HORIZONTAL_2P_52;
}

// L_1800068585_LineConfig
object line_configuration {
	name L_1800068585_LineConfig;
	conductor_A OHCond_4_ACSR_I;
	conductor_B OHCond_4_ACSR_I;
	spacing OHSpacing_TRIANGULAR_2P_45;
}

// L_1800067072_LineConfig
object line_configuration {
	name L_1800067072_LineConfig;
	conductor_A OHCond_4_ACSR_I;
	conductor_B OHCond_4_ACSR_I;
	conductor_C OHCond_4_ACSR_I;
	spacing OHSpacing_TRIANGULAR_3P_35;
}

// L_1800069717_LineConfig
object line_configuration {
	name L_1800069717_LineConfig;
	conductor_A OHCond_4_ACSR_I;
	conductor_N OHCond_4_ACSR_I;
	spacing OHSpacing_HORIZONTAL_1P_88;
}

// L_1800067568_LineConfig
object line_configuration {
	name L_1800067568_LineConfig;
	conductor_A OHCond_4_ACSR_I;
	conductor_B OHCond_4_ACSR_I;
	conductor_C OHCond_4_ACSR_I;
	spacing OHSpacing_HORIZONTAL_3P_52;
}

// L_1800032283_LineConfig
object line_configuration {
	name L_1800032283_LineConfig;
	conductor_A OHCond_1/0_CU_I;
	conductor_B OHCond_1/0_CU_I;
	conductor_C OHCond_1/0_CU_I;
...